LTspice 26.0.1 for Windows
Circuit: C:\Mac\Home\Documents\115DA-Capstone\SAR ADC\Draft1.net
Start Time: Mon Apr  6 15:36:15 2026
solver = Normal
Maximum thread count: 6
tnom = 27
temp = 27
method = trap
.OP point found by inspection.
Total elapsed time: 0.700 seconds.

Files loaded:
C:\Mac\Home\Documents\115DA-Capstone\SAR ADC\Draft1.net

